49
Palmitate
O	-9.5605	0.6695	-0.0838
O	-8.5332	-1.3534	0.0164
C	1.77	-0.4356	0.0582
C	0.5235	0.4509	0.083
C	3.0463	0.4092	0.0877
C	-0.7911	-0.3346	0.0414
C	4.2949	-0.4722	0.0265
C	-2.0721	0.505	-0.0209
C	5.605	0.3187	0.0913
C	-3.3539	-0.3321	-0.0108
C	6.893	-0.5009	-0.0508
C	-4.5986	0.5561	0.0054
C	8.1645	0.3517	-0.0404
C	-5.9165	-0.2275	-0.0233
C	9.4506	-0.4776	-0.093
C	-7.173	0.6435	-0.0191
C	10.7192	0.3603	-0.0527
C	-8.4681	-0.131	-0.0149
H	1.7548	-1.1149	0.9189
H	1.7587	-1.0564	-0.8456
H	0.536	1.0745	0.9855
H	0.5519	1.1356	-0.7738
H	3.0499	1.1058	-0.7593
H	3.0675	1.0123	1.0033
H	-0.8365	-0.9824	0.9261
H	-0.7737	-1.003	-0.829
H	4.2759	-1.1927	0.8534
H	4.2778	-1.0564	-0.9018
H	-2.0493	1.1259	-0.9248
H	-2.0825	1.1921	0.8344
H	5.5908	1.0785	-0.7008
H	5.6387	0.8661	1.0419
H	-3.3611	-0.9849	0.8701
H	-3.3734	-0.9811	-0.8944
H	6.9379	-1.2311	0.7664
H	6.8533	-1.0741	-0.9851
H	-4.5713	1.2318	-0.8586
H	-4.5806	1.1888	0.9014
H	8.1435	1.0427	-0.8919
H	8.1753	0.9681	0.867
H	-5.946	-0.9033	0.8411
H	-5.9313	-0.8708	-0.9125
H	9.4539	-1.0823	-1.0077
H	9.465	-1.1782	0.7506
H	-7.1671	1.2837	0.8703
H	-7.1683	1.2834	-0.9089
H	10.7586	1.0487	-0.9027
H	11.6026	-0.2843	-0.094
H	10.7686	0.9489	0.8687
